Version 4
SHEET 1 880 680
FLAG 112 176 0
SYMBOL ind 16 -96 R270
WINDOW 0 32 56 VTop 2
WINDOW 3 -3 76 VBottom 2
SYMATTR InstName L1
SYMBOL res 544 -32 R0
SYMATTR InstName R1
SYMBOL cap 432 -16 R0
SYMATTR InstName C1
SYMBOL voltage -64 -48 R0
SYMATTR InstName V1
SYMBOL diode 288 -96 R270
WINDOW 0 32 32 VTop 2
WINDOW 3 0 32 VBottom 2
SYMATTR InstName D1
SYMBOL nmos 176 -32 R0
SYMATTR InstName M1
