Version 4
SHEET 1 1488 680
WIRE 272 -240 208 -240
WIRE 400 -240 352 -240
WIRE 320 -112 320 -128
WIRE 320 -16 320 -32
WIRE 32 0 -48 0
WIRE 208 0 208 -240
WIRE 208 0 112 0
WIRE 288 0 208 0
WIRE 400 16 400 -240
WIRE 400 16 352 16
WIRE 480 16 400 16
WIRE 288 32 192 32
WIRE 320 96 320 48
WIRE -48 160 -48 0
WIRE 192 176 192 32
WIRE 320 192 320 176
WIRE 192 288 192 256
FLAG -48 160 0
FLAG 192 288 0
FLAG 480 16 Vout
FLAG 320 -128 0
FLAG 320 192 0
SYMBOL res 128 -16 R90
WINDOW 0 0 56 VBottom 2
WINDOW 3 32 56 VTop 2
SYMATTR InstName Ri
SYMATTR Value 5.6K
SYMBOL res 368 -256 R90
WINDOW 0 0 56 VBottom 2
WINDOW 3 32 56 VTop 2
SYMATTR InstName Rf
SYMATTR Value 100K
SYMBOL voltage 192 160 R0
WINDOW 123 0 0 Left 0
WINDOW 39 0 0 Left 0
SYMATTR InstName Vin
SYMATTR Value SINE(0 0.1 1K)
SYMBOL Opamps\\opamp2 320 -48 R0
SYMATTR InstName U1
SYMATTR Value LF356
SYMBOL voltage 320 -16 R180
WINDOW 0 24 96 Left 2
WINDOW 3 24 16 Left 2
WINDOW 123 0 0 Left 0
WINDOW 39 0 0 Left 0
SYMATTR InstName Vcc
SYMATTR Value 5
SYMBOL voltage 320 80 R0
WINDOW 123 0 0 Left 0
WINDOW 39 0 0 Left 0
SYMATTR InstName Vee
SYMATTR Value -5
SYMBOL Opamps\\opamp2 -272 -240 R0
SYMATTR InstName U2
SYMATTR Value LF356
TEXT 376 328 Left 2 ;Illa Rochez ECE 2804 Review Lab
TEXT -344 368 Left 2 !.tran 0 0.005 0
TEXT -344 392 Left 2 !.include C:\\Users\\iroch\\OneDrive\\Documents\\LTspiceXVII\\lib\\sub\\LF356.sub
TEXT 568 440 Left 2 !.include C:\\Users\\iroch\\OneDrive\\Documents\\LTspiceXVII\\lib\\sub\\LF356.sub
